*
*
*
*                       LINUX           Tue Mar  4 12:40:59 2025
*
*
*
*  PROGRAM  advgen
*
*  Name           : advgen - Quantus - (64-bit)
*  Version        : 22.1.1-p041
*  Build Date     : Mon Apr 17 07:36:05 PDT 2023
*
*  HSPICE LIBRARY
*
* GLOBAL_TEMPERATURE 25
*  OPERATING_TEMPERATURE 25
*  QRC_TECH_DIR /CMC_STC2/kits/cadence/GPDK045/gpdk045_v_6_0/qrc/typical 
*
*!LENGTH_UNITS METERS
*
*
*

*
.SUBCKT Inverter_Tut3_Redo VDD VSS IN OUT
*
*
*  caps2d version: 10
*
*
*       TRANSISTOR CARDS
*
*
MavD2_1	OUT#1	IN#3	VSS#3	VSS#1	nmos1v#20ivpcell#20gpdk045
+ L=4.5e-08	W=1.2e-07
+ AD=1.68e-14	AS=1.68e-14	PD=5.2e-07	PS=5.2e-07
+ scc=0.000232308 scb=0.0116394 sca=13.4671 sb=1.4e-07 sa=1.4e-07
MavD10_1	OUT#2	IN#1	VDD#3	VDD#1	pmos1v#20ivpcell#20gpdk045
+ L=4.5e-08	W=2.4e-07
+ AD=3.36e-14	AS=3.36e-14	PD=7.6e-07	PS=7.6e-07
+ scc=0.00628508 scb=0.061101 sca=58.4862 sb=1.4e-07 sa=1.4e-07
*
*
*       RESISTOR AND CAP/DIODE CARDS
*
Rk1	IN	IN#2	45.371979	$metal1_conn	$W=8e-08
+ $X=-2.187 $Y=1.4
Rk3	VDD	VDD#3	31.282724	$metal1_conn	$W=9e-08
+ $X=-1.99 $Y=1.8875
Rk4	VDD#1	VDD	25.000000	$metal1_conn	$W=9e-08
+ $X=-1.885 $Y=2.06
Rk6	VSS	VSS#3	75.236984	$metal1_conn	$W=9e-08
+ $X=-1.99 $Y=1.045
Rk7	VSS#1	VSS	20.666666	$metal1_conn	$W=9e-08
+ $X=-1.885 $Y=0.875
Rk8	OUT	OUT#1	75.432953	$metal1_conn	$W=1e-07
+ $X=-1.31 $Y=1.3045
Rk9	OUT	OUT#2	31.473991	$metal1_conn	$W=1e-07
+ $X=-1.31 $Y=1.528
Rl1	IN#1	IN#2	46.133774	$poly_conn	$W=3.9e-08
+ $X=-1.8875 $Y=1.5105
Rl2	IN#2	IN#3	46.133770	$poly_conn	$W=3.9e-08
+ $X=-1.8875 $Y=1.295
*
*       CAPACITOR CARDS
*
*
C1	VDD	IN#1	4.15036e-18	$cmodel	$X=-1.876 $Y=1.812
C2	IN#2	VDD	4.31616e-18	$cmodel	$X=-1.9105 $Y=1.721
C3	VDD	VDD#1	3.8813e-17	$cmodel	$X=-1.848 $Y=2.059
C4	OUT#2	VDD	7.50602e-18	$cmodel	$X=-1.788 $Y=1.9165
C5	OUT	IN#1	1.51742e-18	$cmodel	$X=-1.7255 $Y=1.6305
C6	OUT	IN#3	9.98823e-19	$cmodel	$X=-1.764 $Y=1.22
C7	VSS#3	OUT#1	1.02255e-17	$cmodel	$X=-1.8675 $Y=1.1705
C8	IN	VDD#1	2.99272e-17	$cmodel	$X=-2.339 $Y=1.399
C9	IN#2	OUT	8.96844e-18	$cmodel	$X=-1.6625 $Y=1.417
C10	OUT	VDD#1	4.63479e-17	$cmodel	$X=-1.3105 $Y=1.434
C11	OUT	OUT#2	5.27055e-18	$cmodel	$X=-1.4625 $Y=1.5345
C12	IN#1	VDD#1	1.28228e-17	$cmodel	$X=-1.8875 $Y=1.707
C13	OUT#1	OUT	2.04049e-18	$cmodel	$X=-1.5135 $Y=1.304
C14	OUT#2	IN#1	4.41952e-18	$cmodel	$X=-1.847 $Y=1.7025
C15	IN#3	VDD#1	1.28919e-17	$cmodel	$X=-1.888 $Y=1.1615
C16	VDD#3	IN#1	6.73049e-18	$cmodel	$X=-1.912 $Y=1.7075
C17	IN#2	VDD#1	2.63384e-17	$cmodel	$X=-1.969 $Y=1.4015
C18	OUT#1	IN#3	2.91997e-18	$cmodel	$X=-1.845 $Y=1.167
C19	IN#2	VDD#3	1.50456e-17	$cmodel	$X=-1.976 $Y=1.5315
C20	VSS#3	IN#3	5.08911e-18	$cmodel	$X=-1.9165 $Y=1.1615
C21	OUT#2	VDD#1	1.80313e-17	$cmodel	$X=-1.6915 $Y=1.684
C22	VSS#3	IN#2	1.58992e-17	$cmodel	$X=-1.9785 $Y=1.264
C23	VDD#3	VDD#1	1.22845e-17	$cmodel	$X=-1.985 $Y=1.708
C24	OUT#1	VDD#1	1.46388e-17	$cmodel	$X=-1.701 $Y=1.184
C25	VDD#3	OUT#2	1.9473e-17	$cmodel	$X=-1.8555 $Y=1.6975
C26	OUT#1	OUT#2	1.11784e-17	$cmodel	$X=-1.697 $Y=1.3745
C27	VDD	VSS	4.30853e-19	$cmodel	$X=-1.848 $Y=1.4655
C28	IN#3	VSS	5.10294e-18	$cmodel	$X=-1.8785 $Y=1.096
C29	IN#2	VSS	6.07593e-18	$cmodel	$X=-1.91 $Y=1.145
C30	VDD#1	VSS	3.86226e-17	$cmodel	$X=-1.848 $Y=0.874
C31	OUT#1	VSS	7.53622e-18	$cmodel	$X=-1.7745 $Y=1.029
*
*
.ENDS Inverter_Tut3_Redo
*
